/*--------------------------------*- C++ -*----------------------------------*\
| =========                 |                                                 |
| \\      /  F ield         | OpenFOAM: The Open Source CFD Toolbox           |
|  \\    /   O peration     | Version:  5.x                                   |
|   \\  /    A nd           | Web:      www.OpenFOAM.org                      |
|    \\/     M anipulation  |                                                 |
\*---------------------------------------------------------------------------*/
FoamFile
{
    version     2.0;
    format      ascii;
    class       volScalarField;
    location    "0/bottomWater";
    object      T;
}
// * * * * * * * * * * * * * * * * * * * * * * * * * * * * * * * * * * * * * //

dimensions      [ 0 0 0 1 0 0 0 ];

internalField   uniform 523.15;

boundaryField
{
    modInlet
    {
        type            fixedValue;
        value           $internalField;
    }
    modOutlet
    {
        type            inletOutlet;
        value           $internalField;
        inletValue      $internalField;
    }
    modInner
    {
        type            compressible::turbulentTemperatureCoupledBaffleMixed;
//        type            fixedValue;
        value           $internalField;
        Tnbr            T;
        kappaMethod     solidThermo;
    }
    modOuter
    {
        type            zeroGradient;
        value           $internalField;
    }
}


// ************************************************************************* //
