/*--------------------------------*- C++ -*----------------------------------*\
  =========                 |
  \\      /  F ield         | OpenFOAM: The Open Source CFD Toolbox
   \\    /   O peration     | Website:  https://openfoam.org
    \\  /    A nd           | Version:  dev
     \\/     M anipulation  |
\*---------------------------------------------------------------------------*/
FoamFile
{
    version     2.0;
    format      ascii;
    class       polyBoundaryMesh;
    location    "constant/clad/polyMesh";
    object      boundary;
}
// * * * * * * * * * * * * * * * * * * * * * * * * * * * * * * * * * * * * * //

4
(
    cladBottom
    {
        type            wall;
        ingroups        1(wall);
        nFaces          364;
        startFace       82036;
    }
    cladTop
    {
        type            wall;
        ingroups        1(wall);
        nFaces          364;
        startFace       82400;
    }
    cladOuter
    {
        type            mappedWall;
        ingroups        1(wall);
        nFaces          9200;
        startFace       82764;
        sampleMode      nearestPatchFace;
        sampleRegion    moderator;
        samplePatch     modInner;
    }
    cladInner
    {
        type            mappedWall;
        ingroups        1(wall);
        nFaces          8000;
        startFace       91964;
        sampleMode      nearestPatchFace;
        sampleRegion    gap;
        samplePatch     gapOuter;
    }
)

// ************************************************************************* //
